powerfulcases/cases/ACTIVSg2000/ACTIVSg2000_singlegen.raw
0,   100.00, 33, 0, 0, 60.00     / PSS(R)E 33 RAW created by rawd33  SUN, NOV 02 2025  14:54
THIS IS A SYNTHETIC POWER SYSTEM MODEL THAT DOES NOT REPRESE
REFERENCE: A.B. BIRCHFIELD, T. XU, K.M. GEGNER, K.S. SHETYE,
  1001,'ODESSA 2 0  ', 115.0000,1,   1,   1,   1,0.97930,  -3.1691,1.10000,0.90000,1.10000,0.90000
  1002,'PRESIDIO 2 0', 115.0000,1,   1,   1,   1,1.02524, -11.2273,1.10000,0.90000,1.10000,0.90000
  1003,'O DONNELL ~1', 115.0000,1,   1,   1,   1,0.99659, -30.8014,1.10000,0.90000,1.10000,0.90000
  1004,'O DONNELL ~2', 230.0000,2,   1,   1,   1,1.01000, -34.5261,1.10000,0.90000,1.10000,0.90000
  1005,'BIG SPRING~8', 115.0000,1,   1,   1,   1,0.99617, -14.1302,1.10000,0.90000,1.10000,0.90000
  1006,'BIG SPRING~9',  13.8000,2,   1,   1,   1,1.00000, -11.9607,1.10000,0.90000,1.10000,0.90000
  1007,'VAN HORN 0  ', 115.0000,1,   1,   1,   1,1.02781, -10.6421,1.10000,0.90000,1.10000,0.90000
  1008,'IRAAN 2 0   ', 115.0000,1,   1,   1,   1,1.01789,  -5.5112,1.10000,0.90000,1.10000,0.90000
  1009,'IRAAN 2 1   ',  13.8000,2,   1,   1,   1,1.00783,  -2.2062,1.10000,0.90000,1.10000,0.90000
  1010,'PRESIDIO 1 0', 115.0000,1,   1,   1,   1,1.03239, -10.2646,1.10000,0.90000,1.10000,0.90000
  1011,'PRESIDIO 1 1',  22.0000,2,   1,   1,   1,1.03265,  -8.9561,1.10000,0.90000,1.10000,0.90000
  1012,'SANDERSON 0 ', 115.0000,1,   1,   1,   1,1.01892, -25.4787,1.10000,0.90000,1.10000,0.90000
  1013,'MONAHANS 2 0', 115.0000,1,   1,   1,   1,1.00146,  -5.3245,1.10000,0.90000,1.10000,0.90000
  1014,'GRANDFALLS 0', 115.0000,1,   1,   1,   1,1.00990,  -3.8565,1.10000,0.90000,1.10000,0.90000
  1015,'MARFA 0     ', 115.0000,1,   1,   1,   1,1.03247, -11.1150,1.10000,0.90000,1.10000,0.90000
  1016,'GARDEN CIT~1', 115.0000,1,   1,   1,   1,1.01556, -12.3361,1.10000,0.90000,1.10000,0.90000
  1017,'ODESSA 4 0  ', 115.0000,1,   1,   1,   1,0.97935,  -6.6919,1.10000,0.90000,1.10000,0.90000
  1018,'NOTREES 0   ', 115.0000,1,   1,   1,   1,0.98853,  -5.9199,1.10000,0.90000,1.10000,0.90000
  1019,'MIDLAND 4 0 ', 115.0000,1,   1,   1,   1,0.99904,  -3.9793,1.10000,0.90000,1.10000,0.90000
  1020,'BIG SPRING~1', 115.0000,1,   1,   1,   1,1.00372, -14.1825,1.10000,0.90000,1.10000,0.90000
  1021,'BIG SPRING~2',  13.8000,2,   1,   1,   1,1.00000,  -7.4908,1.10000,0.90000,1.10000,0.90000
  1022,'O DONNELL ~3', 115.0000,1,   1,   1,   1,1.00144, -30.3397,1.10000,0.90000,1.10000,0.90000
  1023,'O DONNELL ~4',  13.8000,2,   1,   1,   1,1.01000, -21.3661,1.10000,0.90000,1.10000,0.90000
  1024,'ODESSA 6 0  ', 115.0000,1,   1,   1,   1,0.99277,  -5.2381,1.10000,0.90000,1.10000,0.90000
  1025,'BIG SPRIN~14', 115.0000,1,   1,   1,   1,1.00381, -12.8486,1.10000,0.90000,1.10000,0.90000
  1026,'BIG SPRIN~15',  13.8000,2,   1,   1,   1,1.00000,  -3.2171,1.10000,0.90000,1.10000,0.90000
  1027,'MIDLAND 2 0 ', 115.0000,1,   1,   1,   1,0.99194, -14.9724,1.10000,0.90000,1.10000,0.90000
  1028,'COAHOMA 0   ', 115.0000,1,   1,   1,   1,1.00570, -32.8151,1.10000,0.90000,1.10000,0.90000
  1029,'MIDLAND 3 0 ', 115.0000,1,   1,   1,   1,0.99127, -15.1094,1.10000,0.90000,1.10000,0.90000
  1030,'ALPINE 0    ', 115.0000,1,   1,   1,   1,1.01766,  -7.8097,1.10000,0.90000,1.10000,0.90000
  1031,'FORT DAVIS 0', 115.0000,1,   1,   1,   1,1.01330,  -8.7163,1.10000,0.90000,1.10000,0.90000
  1032,'MCCAMEY 1 0 ', 115.0000,1,   1,   1,   1,0.99558,  -7.8108,1.10000,0.90000,1.10000,0.90000
  1033,'MCCAMEY 1 1 ', 230.0000,2,   1,   1,   1,1.00000, -11.8416,1.10000,0.90000,1.10000,0.90000
  1034,'BIG SPRING~6', 115.0000,1,   1,   1,   1,1.00221, -11.4038,1.10000,0.90000,1.10000,0.90000
  1035,'BIG SPRING~7',  13.8000,2,   1,   1,   1,1.00000,  -8.1131,1.10000,0.90000,1.10000,0.90000
  1036,'CRANE 0     ', 115.0000,1,   1,   1,   1,0.99509,  -8.3548,1.10000,0.90000,1.10000,0.90000
  1037,'ODESSA 5 0  ', 115.0000,1,   1,   1,   1,0.97459,  -5.4501,1.10000,0.90000,1.10000,0.90000
  1038,'FORT STOCK~1', 115.0000,1,   1,   1,   1,1.01663,  -2.9248,1.10000,0.90000,1.10000,0.90000
  1039,'FORT STOCK~2',  22.0000,2,   1,   1,   1,1.00000,   2.4582,1.10000,0.90000,1.10000,0.90000
  1040,'ANDREWS 0   ', 115.0000,1,   1,   1,   1,0.99393,  -5.0169,1.10000,0.90000,1.10000,0.90000
  1041,'FORSAN 0    ', 115.0000,1,   1,   1,   1,0.99875, -11.9673,1.10000,0.90000,1.10000,0.90000
  1042,'FORSAN 1    ',  13.8000,2,   1,   1,   1,0.99875, -11.9673,1.10000,0.90000,1.10000,0.90000
  1043,'FORSAN 2    ',  13.8000,2,   1,   1,   1,1.00000,  -8.7182,1.10000,0.90000,1.10000,0.90000
  1044,'BIG LAKE 0  ', 115.0000,1,   1,   1,   1,0.98009, -28.5262,1.10000,0.90000,1.10000,0.90000
  1045,'MIDLAND 5 0 ', 115.0000,1,   1,   1,   1,0.97220,  -6.9844,1.10000,0.90000,1.10000,0.90000
  1046,'OZONA 0     ', 115.0000,1,   1,   1,   1,1.01068, -23.7178,1.10000,0.90000,1.10000,0.90000
  1047,'MONAHANS 1 0', 115.0000,1,   1,   1,   1,1.00045,  -3.1394,1.10000,0.90000,1.10000,0.90000
  1048,'MONAHANS 1 1',  18.0000,2,   1,   1,   1,1.00045,  -3.1394,1.10000,0.90000,1.10000,0.90000
  1049,'MONAHANS 1 2',  18.0000,2,   1,   1,   1,1.00045,  -3.1394,1.10000,0.90000,1.10000,0.90000
  1050,'MONAHANS 1 3',  18.0000,2,   1,   1,   1,1.00000,   1.9558,1.10000,0.90000,1.10000,0.90000
  1051,'MONAHANS 1 4',  18.0000,2,   1,   1,   1,1.00000,   3.4411,1.10000,0.90000,1.10000,0.90000
  1052,'MONAHANS 1 5',  18.0000,2,   1,   1,   1,1.00000,   1.0961,1.10000,0.90000,1.10000,0.90000
  1053,'MONAHANS 1 6', 230.0000,2,   1,   1,   1,1.00051,  -9.7613,1.10000,0.90000,1.10000,0.90000
  1054,'STANTON 0   ', 115.0000,1,   1,   1,   1,0.99675, -20.1420,1.10000,0.90000,1.10000,0.90000
  1055,'ODONNELL 0  ', 115.0000,1,   1,   1,   1,0.98888, -30.2848,1.10000,0.90000,1.10000,0.90000
  1056,'LENORAH 0   ', 115.0000,1,   1,   1,   1,1.01211, -15.9083,1.10000,0.90000,1.10000,0.90000
  1057,'LENORAH 1   ',  18.0000,2,   1,   1,   1,1.01211, -15.9083,1.10000,0.90000,1.10000,0.90000
  1058,'IRAAN 3 0   ', 115.0000,1,   1,   1,   1,1.02373,  -9.1624,1.10000,0.90000,1.10000,0.90000
  1059,'IRAAN 3 1   ',  22.0000,2,   1,   1,   1,1.02373,  -9.1624,1.10000,0.90000,1.10000,0.90000
  1060,'IRAAN 3 2   ',  22.0000,2,   1,   1,   1,1.02373,  -9.1624,1.10000,0.90000,1.10000,0.90000
  1061,'BIG SPRIN~10', 115.0000,1,   1,   1,   1,0.99486, -15.5802,1.10000,0.90000,1.10000,0.90000
  1062,'BIG SPRIN~11',  13.8000,2,   1,   1,   1,0.99486, -15.5802,1.10000,0.90000,1.10000,0.90000
  1063,'BIG SPRIN~12',  13.8000,2,   1,   1,   1,0.99486, -15.5802,1.10000,0.90000,1.10000,0.90000
  1064,'ODESSA 3 0  ', 115.0000,1,   1,   1,   1,0.96985,  -5.2599,1.10000,0.90000,1.10000,0.90000
  1065,'BIG SPRING~4', 115.0000,1,   1,   1,   1,1.00152, -11.3797,1.10000,0.90000,1.10000,0.90000
  1066,'BIG SPRING~5',  13.8000,2,   1,   1,   1,1.00000,  -3.8324,1.10000,0.90000,1.10000,0.90000
  1067,'BIG SPRIN~13', 115.0000,1,   1,   1,   1,0.99476, -12.8673,1.10000,0.90000,1.10000,0.90000
  1068,'MIDLAND 1 0 ', 115.0000,1,   1,   1,   1,0.98559, -12.9435,1.10000,0.90000,1.10000,0.90000
  1069,'IRAAN 1 0   ', 115.0000,1,   1,   1,   1,1.02320,  -6.0520,1.10000,0.90000,1.10000,0.90000
  1070,'IRAAN 1 1   ',  13.8000,2,   1,   1,   1,1.04000,  -1.5497,1.10000,0.90000,1.10000,0.90000
  1071,'ODESSA 1 0  ', 115.0000,1,   1,   1,   1,0.98908,  -1.3965,1.10000,0.90000,1.10000,0.90000
  1072,'ODESSA 1 1  ',  18.0000,2,   1,   1,   1,1.01000,   7.9819,1.10000,0.90000,1.10000,0.90000
  1073,'ODESSA 1 2  ',  18.0000,2,   1,   1,   1,1.01000,  14.4116,1.10000,0.90000,1.10000,0.90000
  1074,'ODESSA 1 3  ',  18.0000,2,   1,   1,   1,1.01000,  12.3553,1.10000,0.90000,1.10000,0.90000
  1075,'ODESSA 1 4  ',  18.0000,2,   1,   1,   1,1.01000,   9.5846,1.10000,0.90000,1.10000,0.90000
  1076,'ODESSA 1 5  ',  18.0000,2,   1,   1,   1,0.98908,  -1.3965,1.10000,0.90000,1.10000,0.90000
  1077,'ODESSA 1 6  ',  18.0000,2,   1,   1,   1,0.98908,  -1.3965,1.10000,0.90000,1.10000,0.90000
  1078,'ODESSA 1 7  ',  18.0000,2,   1,   1,   1,1.01000,   9.0639,1.10000,0.90000,1.10000,0.90000
  1079,'ODESSA 1 8  ',  18.0000,2,   1,   1,   1,1.01000,   3.2627,1.10000,0.90000,1.10000,0.90000
  1080,'ODESSA 1 9  ',  18.0000,2,   1,   1,   1,1.01000,   9.6442,1.10000,0.90000,1.10000,0.90000
  1081,'ODESSA 1 10 ', 230.0000,2,   1,   1,   1,0.99978, -12.0227,1.10000,0.90000,1.10000,0.90000
  1082,'FORT STOCK~3', 115.0000,2,   1,   1,   1,1.01937,  -1.8915,1.10000,0.90000,1.10000,0.90000
  1083,'FORT STOCK~4', 115.0000,1,   1,   1,   1,1.01918,  -4.4410,1.10000,0.90000,1.10000,0.90000
  1084,'BIG SPRING~3', 115.0000,2,   1,   1,   1,1.00489, -11.9076,1.10000,0.90000,1.10000,0.90000
  1085,'KERMIT 0    ', 115.0000,1,   1,   1,   1,1.00561,  -4.1935,1.10000,0.90000,1.10000,0.90000
  1086,'PECOS 0     ', 115.0000,1,   1,   1,   1,1.01217,  -6.8843,1.10000,0.90000,1.10000,0.90000
  1087,'SHEFFIELD 0 ', 115.0000,1,   1,   1,   1,1.03560, -15.3085,1.10000,0.90000,1.10000,0.90000
  1088,'MCCAMEY 2 0 ', 115.0000,2,   1,   1,   1,1.00000,  -8.0018,1.10000,0.90000,1.10000,0.90000
  1089,'LAMESA 0    ', 115.0000,1,   1,   1,   1,0.96679, -28.2952,1.10000,0.90000,1.10000,0.90000
  1090,'GOLDSMITH 0 ', 115.0000,2,   1,   1,   1,1.01850,  -2.4941,1.10000,0.90000,1.10000,0.90000
  1091,'RALLS 2 0   ', 161.0000,1,   1,   1,   1,1.02728, -49.5303,1.10000,0.90000,1.10000,0.90000
  2001,'PARIS 3 0   ', 161.0000,1,   2,   1,   1,1.00316, -84.1720,1.10000,0.90000,1.10000,0.90000
  2002,'SAVOY 0     ', 500.0000,1,   2,   1,   1,1.01233, -85.6719,1.10000,0.90000,1.10000,0.90000
  2003,'SAVOY 1     ', 161.0000,1,   2,   1,   1,1.01294, -87.9211,1.10000,0.90000,1.10000,0.90000
  2004,'SAVOY 2     ',  13.8000,2,   2,   1,   1,1.01233, -85.6719,1.10000,0.90000,1.10000,0.90000
  2005,'SAVOY 3     ',  13.8000,2,   2,   1,   1,1.01233, -85.6719,1.10000,0.90000,1.10000,0.90000
  2006,'SAVOY 4     ',  13.8000,2,   2,   1,   1,1.01233, -85.6719,1.10000,0.90000,1.10000,0.90000
  2007,'HONEY GROV~1', 161.0000,1,   2,   1,   1,1.00424, -83.9414,1.10000,0.90000,1.10000,0.90000
  2008,'MEMPHIS 0   ', 161.0000,1,   2,   1,   1,1.02309, -52.3145,1.10000,0.90000,1.10000,0.90000
  2009,'IOWA PARK 0 ', 161.0000,1,   2,   1,   1,1.00871, -64.9931,1.10000,0.90000,1.10000,0.90000
  2010,'VERNON 2 0  ', 161.0000,1,   2,   1,   1,1.01051, -54.8154,1.10000,0.90000,1.10000,0.90000
  2011,'PANHANDLE ~2', 500.0000,1,   2,   1,   1,1.04623, -52.1775,1.10000,0.90000,1.10000,0.90000
  2012,'PANHANDLE ~3', 161.0000,1,   2,   1,   1,1.03575, -49.8696,1.10000,0.90000,1.10000,0.90000
  2013,'PANHANDLE ~4',  18.0000,2,   2,   1,   1,1.03795, -49.8710,1.10000,0.90000,1.10000,0.90000
  2014,'CHILDRESS 0 ', 161.0000,1,   2,   1,   1,1.02011, -52.6050,1.10000,0.90000,1.10000,0.90000
  2015,'FORESTBURG 0', 161.0000,1,   2,   1,   1,0.99361, -86.0571,1.10000,0.90000,1.10000,0.90000
  2016,'SHERMAN 3 0 ', 161.0000,1,   2,   1,   1,1.02659, -94.0983,1.10000,0.90000,1.10000,0.90000
  2017,'PANHANDLE ~7', 500.0000,1,   2,   1,   1,1.04497, -52.0700,1.10000,0.90000,1.10000,0.90000
  2018,'PANHANDLE ~8', 161.0000,1,   2,   1,   1,1.04058, -51.3638,1.10000,0.90000,1.10000,0.90000
  2019,'PANHANDLE ~9',  20.0000,2,   2,   1,   1,1.04497, -52.0700,1.10000,0.90000,1.10000,0.90000
  2020,'WICHITA F~12', 161.0000,1,   2,   1,   1,0.98792, -64.8184,1.10000,0.90000,1.10000,0.90000
  2021,'PARIS 2 0   ', 500.0000,1,   2,   1,   1,1.01499, -80.9153,1.10000,0.90000,1.10000,0.90000
  2022,'PARIS 2 1   ', 161.0000,1,   2,   1,   1,1.01133, -82.8343,1.10000,0.90000,1.10000,0.90000
  2023,'PARIS 2 2   ',  13.8000,2,   2,   1,   1,1.02000, -79.3486,1.10000,0.90000,1.10000,0.90000
  2024,'PARIS 2 3   ',  13.8000,2,   2,   1,   1,1.02000, -78.6819,1.10000,0.90000,1.10000,0.90000
  2025,'WICHITA F~10', 161.0000,1,   2,   1,   1,0.98778, -63.9641,1.10000,0.90000,1.10000,0.90000
  2026,'WHEELER 0   ', 161.0000,1,   2,   1,   1,1.03411, -51.1459,1.10000,0.90000,1.10000,0.90000
  2027,'DEPORT 0    ', 161.0000,1,   2,   1,   1,1.00369, -84.5980,1.10000,0.90000,1.10000,0.90000
  2028,'WICHITA FA~9', 161.0000,1,   2,   1,   1,0.98487, -67.4519,1.10000,0.90000,1.10000,0.90000
  2029,'SILVERTON 0 ', 161.0000,1,   2,   1,   1,1.02459, -51.7610,1.10000,0.90000,1.10000,0.90000
  2030,'BONHAM 0    ', 161.0000,1,   2,   1,   1,0.99091, -88.1705,1.10000,0.90000,1.10000,0.90000
  2031,'MATADOR 0   ', 161.0000,1,   2,   1,   1,1.01110, -47.1741,1.10000,0.90000,1.10000,0.90000
  2032,'ARTHUR CIT~1', 161.0000,1,   2,   1,   1,1.00617, -83.3434,1.10000,0.90000,1.10000,0.90000
  2033,'LEONARD 0   ', 161.0000,1,   2,   1,   1,0.99346, -89.6395,1.10000,0.90000,1.10000,0.90000
  2034,'GORDONVILL~1', 161.0000,1,   2,   1,   1,1.01998, -93.3916,1.10000,0.90000,1.10000,0.90000
  2035,'KNOX CITY 0 ', 161.0000,1,   2,   1,   1,1.00088, -47.8671,1.10000,0.90000,1.10000,0.90000
  2036,'WICHITA F~13', 161.0000,1,   2,   1,   1,0.99154, -64.3282,1.10000,0.90000,1.10000,0.90000
  2037,'LINDSAY 0   ', 161.0000,1,   2,   1,   1,1.00313, -86.4562,1.10000,0.90000,1.10000,0.90000
  2038,'ECTOR 0     ', 161.0000,1,   2,   1,   1,1.00978, -88.3892,1.10000,0.90000,1.10000,0.90000
  2039,'SUNSET 0    ', 161.0000,1,   2,   1,   1,0.98177, -83.2256,1.10000,0.90000,1.10000,0.90000
  2040,'CLARKSVILL~1', 161.0000,1,   2,   1,   1,1.00886, -83.5041,1.10000,0.90000,1.10000,0.90000
  2041,'PANHANDLE ~5', 161.0000,1,   2,   1,   1,1.03660, -47.7340,1.10000,0.90000,1.10000,0.90000
  2042,'PANHANDLE ~6',  18.0000,2,   2,   1,   1,1.02809, -45.2017,1.10000,0.90000,1.10000,0.90000
  2043,'SADLER 0    ', 161.0000,1,   2,   1,   1,1.02258, -93.7133,1.10000,0.90000,1.10000,0.90000
  2044,'WHITESBORO 0', 161.0000,1,   2,   1,   1,0.99839, -88.8054,1.10000,0.90000,1.10000,0.90000
  2045,'SHEPPARD A~1', 161.0000,1,   2,   1,   1,0.98665, -65.4117,1.10000,0.90000,1.10000,0.90000
  2046,'POTTSBORO 0 ', 161.0000,1,   2,   1,   1,1.01759, -92.9890,1.10000,0.90000,1.10000,0.90000
  2047,'BELLS 0     ', 161.0000,1,   2,   1,   1,1.01275, -88.8224,1.10000,0.90000,1.10000,0.90000
  2048,'CROSBYTON 0 ', 161.0000,1,   2,   1,   1,1.01909, -49.8265,1.10000,0.90000,1.10000,0.90000
  2049,'ELECTRA 0   ', 161.0000,1,   2,   1,   1,1.00975, -60.3058,1.10000,0.90000,1.10000,0.90000
  2050,'PATTONVILL~1', 161.0000,1,   2,   1,   1,0.99618, -87.3801,1.10000,0.90000,1.10000,0.90000
  2051,'HENRIETTA 0 ', 161.0000,1,   2,   1,   1,0.97833, -75.4641,1.10000,0.90000,1.10000,0.90000
  2052,'PANHANDLE~13', 161.0000,1,   2,   1,   1,1.02538, -51.6876,1.10000,0.90000,1.10000,0.90000
  2053,'BOWIE 0     ', 161.0000,1,   2,   1,   1,0.98547, -82.2086,1.10000,0.90000,1.10000,0.90000
  2054,'WICHITA FA~1', 500.0000,1,   2,   1,   1,0.99188, -62.9539,1.10000,0.90000,1.10000,0.90000
  2055,'WICHITA FA~2', 161.0000,1,   2,   1,   1,0.99081, -63.8167,1.10000,0.90000,1.10000,0.90000
  2056,'WICHITA FA~3',  18.0000,2,   2,   1,   1,0.99188, -62.9539,1.10000,0.90000,1.10000,0.90000
  2057,'WICHITA FA~4',  18.0000,2,   2,   1,   1,0.99000, -58.9527,1.10000,0.90000,1.10000,0.90000
  2058,'WHITE DEER 0', 161.0000,1,   2,   1,   1,1.03678, -47.3248,1.10000,0.90000,1.10000,0.90000
  2059,'WHITE DEER 1',  13.8000,2,   2,   1,   1,1.02690, -44.0333,1.10000,0.90000,1.10000,0.90000
  2060,'ROXTON 0    ', 161.0000,1,   2,   1,   1,0.99926, -86.1068,1.10000,0.90000,1.10000,0.90000
  2061,'VERNON 1 0  ', 161.0000,1,   2,   1,   1,1.01638, -56.4942,1.10000,0.90000,1.10000,0.90000
  2062,'VERNON 1 1  ',  18.0000,2,   2,   1,   1,1.02000, -54.1971,1.10000,0.90000,1.10000,0.90000
  2063,'DENISON 2 0 ', 161.0000,1,   2,   1,   1,1.01668, -92.3453,1.10000,0.90000,1.10000,0.90000
  2064,'SUMNER 0    ', 161.0000,1,   2,   1,   1,1.00469, -84.4552,1.10000,0.90000,1.10000,0.90000
  2065,'GAINESVILL~1', 161.0000,1,   2,   1,   1,0.99449, -88.6007,1.10000,0.90000,1.10000,0.90000
  2066,'ASPERMONT 0 ', 161.0000,1,   2,   1,   1,0.99945, -44.4747,1.10000,0.90000,1.10000,0.90000
  2067,'WICHITA F~11', 161.0000,1,   2,   1,   1,0.98640, -63.8618,1.10000,0.90000,1.10000,0.90000
  2068,'WINDTHORST 0', 161.0000,1,   2,   1,   1,0.99448, -61.7014,1.10000,0.90000,1.10000,0.90000
  2069,'HOWE 0      ', 161.0000,1,   2,   1,   1,1.04459, -93.3423,1.10000,0.90000,1.10000,0.90000
  2070,'ARCHER 2 0  ', 161.0000,1,   2,   1,   1,0.99666, -61.2355,1.10000,0.90000,1.10000,0.90000
  2071,'ARCHER 2 1  ',  18.0000,2,   2,   1,   1,1.00000, -57.5465,1.10000,0.90000,1.10000,0.90000
  2072,'COLLINSVIL~1', 161.0000,1,   2,   1,   1,1.02994, -91.4077,1.10000,0.90000,1.10000,0.90000
  2073,'JAYTON 0    ', 161.0000,1,   2,   1,   1,1.00069, -41.5919,1.10000,0.90000,1.10000,0.90000
  2074,'JAYTON 1    ', 115.0000,1,   2,   1,   1,0.99216, -39.4803,1.10000,0.90000,1.10000,0.90000
  2075,'JAYTON 2    ', 115.0000,1,   2,   1,   1,0.99216, -39.4803,1.10000,0.90000,1.10000,0.90000
  2076,'JAYTON 3    ',  24.0000,2,   2,   1,   1,1.00603, -40.6583,1.10000,0.90000,1.10000,0.90000
  2077,'MUENSTER 1 0', 161.0000,1,   2,   1,   1,1.01286, -83.8687,1.10000,0.90000,1.10000,0.90000
  2078,'MUENSTER 1 1',  13.8000,2,   2,   1,   1,1.02000, -80.5376,1.10000,0.90000,1.10000,0.90000
  2079,'PADUCAH 0   ', 161.0000,1,   2,   1,   1,1.01469, -52.9115,1.10000,0.90000,1.10000,0.90000
  2080,'NOCONA 0    ', 161.0000,1,   2,   1,   1,0.98459, -79.4288,1.10000,0.90000,1.10000,0.90000
  2081,'DODD CITY 0 ', 161.0000,1,   2,   1,   1,1.00411, -89.1877,1.10000,0.90000,1.10000,0.90000
  2082,'WICHITA FA~5', 161.0000,1,   2,   1,   1,0.99452, -64.6570,1.10000,0.90000,1.10000,0.90000
  2083,'WICHITA FA~6',  20.0000,2,   2,   1,   1,1.00935, -63.0466,1.10000,0.90000,1.10000,0.90000
  2084,'WICHITA FA~7',  20.0000,2,   2,   1,   1,0.99452, -64.6570,1.10000,0.90000,1.10000,0.90000
  2085,'WICHITA FA~8',  20.0000,2,   2,   1,   1,0.99452, -64.6570,1.10000,0.90000,1.10000,0.90000
  2086,'MONTAGUE 0  ', 161.0000,1,   2,   1,   1,0.98259, -81.7876,1.10000,0.90000,1.10000,0.90000
  2087,'SPUR 0      ', 161.0000,1,   2,   1,   1,1.00474, -44.4689,1.10000,0.90000,1.10000,0.90000
  2088,'ARCHER 1 0  ', 161.0000,1,   2,   1,   1,0.99576, -61.3844,1.10000,0.90000,1.10000,0.90000
  2089,'ARCHER 1 1  ',  24.0000,2,   2,   1,   1,1.00000, -57.7711,1.10000,0.90000,1.10000,0.90000
  2090,'ANNONA 0    ', 161.0000,1,   2,   1,   1,1.00416, -85.2095,1.10000,0.90000,1.10000,0.90000
  2091,'SEYMOUR 0   ', 161.0000,1,   2,   1,   1,1.00401, -51.8526,1.10000,0.90000,1.10000,0.90000
  2092,'DENISON 1 0 ', 161.0000,1,   2,   1,   1,1.01304, -90.6612,1.10000,0.90000,1.10000,0.90000
  2093,'PANHANDLE~10', 161.0000,1,   2,   1,   1,1.03849, -50.5799,1.10000,0.90000,1.10000,0.90000
  2094,'PANHANDLE~11',  13.8000,2,   2,   1,   1,1.03849, -50.5799,1.10000,0.90000,1.10000,0.90000
  2095,'PANHANDLE~12',  13.8000,2,   2,   1,   1,1.03849, -50.5799,1.10000,0.90000,1.10000,0.90000
  2096,'RALLS 1 0   ', 500.0000,1,   2,   1,   1,1.03606, -46.7521,1.10000,0.90000,1.10000,0.90000
  2097,'RALLS 1 1   ', 230.0000,1,   2,   1,   1,1.03155, -45.9519,1.10000,0.90000,1.10000,0.90000
  2098,'RALLS 1 2   ', 161.0000,1,   2,   1,   1,1.02960, -48.9745,1.10000,0.90000,1.10000,0.90000
  2099,'RALLS 1 3   ',  18.0000,2,   2,   1,   1,1.03560, -46.6126,1.10000,0.90000,1.10000,0.90000
  2100,'RALLS 1 4   ',  18.0000,2,   2,   1,   1,1.02693, -44.1766,1.10000,0.90000,1.10000,0.90000
  2101,'SHERMAN 1 0 ', 500.0000,1,   2,   1,   1,1.01135, -86.7444,1.10000,0.90000,1.10000,0.90000
  2102,'SHERMAN 1 1 ', 161.0000,1,   2,   1,   1,1.01146, -88.1343,1.10000,0.90000,1.10000,0.90000
  2103,'SHERMAN 1 2 ',  20.0000,2,   2,   1,   1,1.01135, -86.7444,1.10000,0.90000,1.10000,0.90000
  2104,'SHERMAN 1 3 ',  20.0000,2,   2,   1,   1,1.01135, -86.7444,1.10000,0.90000,1.10000,0.90000
  2105,'SHERMAN 1 4 ',  20.0000,2,   2,   1,   1,1.01135, -86.7444,1.10000,0.90000,1.10000,0.90000
  2106,'WHITEWRIGH~1', 161.0000,1,   2,   1,   1,0.99225, -90.2837,1.10000,0.90000,1.10000,0.90000
  2107,'SHERMAN 2 0 ', 161.0000,1,   2,   1,   1,1.00577, -88.9861,1.10000,0.90000,1.10000,0.90000
  2108,'ROCHESTER 0 ', 161.0000,1,   2,   1,   1,0.97383, -63.5131,1.10000,0.90000,1.10000,0.90000
  2109,'BURKBURNET~1', 161.0000,1,   2,   1,   1,0.99584, -66.3126,1.10000,0.90000,1.10000,0.90000
...
 0 /End of Bus data, Begin Load data
  1001,'1 ',1,   1,   1,    20.781,     5.888,     0.000,     0.000,     0.000,     0.000,   1,1,0
  1002,'1 ',1,   1,   1,    15.414,     4.367,     0.000,     0.000,     0.000,     0.000,   1,1,0
  1007,'1 ',1,   1,   1,     7.008,     1.986,     0.000,     0.000,     0.000,     0.000,   1,1,0
  1012,'1 ',1,   1,   1,     2.985,     0.846,     0.000,     0.000,     0.000,     0.000,   1,1,0
  1013,'1 ',1,   1,   1,     0.510,     0.144,     0.000,     0.000,     0.000,     0.000,   1,1,0
  1013,'2 ',1,   1,   1,     1.518,     0.430,     0.000,     0.000,     0.000,     0.000,   1,1,0
  1013,'3 ',1,   1,   1,    27.198,     7.706,     0.000,     0.000,     0.000,     0.000,   1,1,0
  1014,'1 ',1,   1,   1,     2.220,     0.629,     0.000,     0.000,     0.000,     0.000,   1,1,0
  1015,'1 ',1,   1,   1,     7.509,     2.128,     0.000,     0.000,     0.000,     0.000,   1,1,0
  1016,'1 ',1,   1,   1,     2.889,     0.819,     0.000,     0.000,     0.000,     0.000,   1,1,0
  1017,'1 ',1,   1,   1,    18.345,     5.198,     0.000,     0.000,     0.000,     0.000,   1,1,0
  1018,'1 ',1,   1,   1,     0.069,     0.020,     0.000,     0.000,     0.000,     0.000,   1,1,0
  1019,'1 ',1,   1,   1,    61.776,    17.503,     0.000,     0.000,     0.000,     0.000,   1,1,0
  1024,'1 ',1,   1,   1,    63.039,    17.861,     0.000,     0.000,     0.000,     0.000,   1,1,0
  1027,'1 ',1,   1,   1,     0.603,     0.171,     0.000,     0.000,     0.000,     0.000,   1,1,0
  1027,'2 ',1,   1,   1,   100.608,    28.506,     0.000,     0.000,     0.000,     0.000,   1,1,0
  1028,'1 ',1,   1,   1,     1.425,     0.404,     0.000,     0.000,     0.000,     0.000,   1,1,0
  1028,'2 ',1,   1,   1,     0.753,     0.213,     0.000,     0.000,     0.000,     0.000,   1,1,0
  1028,'3 ',1,   1,   1,     4.899,     1.388,     0.000,     0.000,     0.000,     0.000,   1,1,0
  1028,'4 ',1,   1,   1,     2.937,     0.832,     0.000,     0.000,     0.000,     0.000,   1,1,0
  1029,'1 ',1,   1,   1,    83.184,    23.569,     0.000,     0.000,     0.000,     0.000,   1,1,0
  1030,'1 ',1,   1,   1,    23.046,     6.530,     0.000,     0.000,     0.000,     0.000,   1,1,0
  1030,'2 ',1,   1,   1,     1.581,     0.448,     0.000,     0.000,     0.000,     0.000,   1,1,0
  1031,'1 ',1,   1,   1,     9.246,     2.620,     0.000,     0.000,     0.000,     0.000,   1,1,0
  1036,'1 ',1,   1,   1,     1.017,     0.288,     0.000,     0.000,     0.000,     0.000,   1,1,0
  1036,'2 ',1,   1,   1,    12.579,     3.564,     0.000,     0.000,     0.000,     0.000,   1,1,0
  1037,'1 ',1,   1,   1,   102.237,    28.967,     0.000,     0.000,     0.000,     0.000,   1,1,0
  1040,'1 ',1,   1,   1,    44.358,    12.568,     0.000,     0.000,     0.000,     0.000,   1,1,0
  1044,'1 ',1,   1,   1,     4.512,     1.278,     0.000,     0.000,     0.000,     0.000,   1,1,0
  1044,'2 ',1,   1,   1,    10.170,     2.881,     0.000,     0.000,     0.000,     0.000,   1,1,0
  1045,'1 ',1,   1,   1,    98.562,    27.926,     0.000,     0.000,     0.000,     0.000,   1,1,0
  1046,'1 ',1,   1,   1,     0.006,     0.002,     0.000,     0.000,     0.000,     0.000,   1,1,0
  1046,'2 ',1,   1,   1,    11.079,     3.139,     0.000,     0.000,     0.000,     0.000,   1,1,0
  1054,'1 ',1,   1,   1,     1.776,     0.503,     0.000,     0.000,     0.000,     0.000,   1,1,0
  1054,'2 ',1,   1,   1,     0.519,     0.147,     0.000,     0.000,     0.000,     0.000,   1,1,0
  1054,'3 ',1,   1,   1,    12.693,     3.596,     0.000,     0.000,     0.000,     0.000,   1,1,0
  1055,'1 ',1,   1,   1,     3.978,     1.127,     0.000,     0.000,     0.000,     0.000,   1,1,0
  1058,'1 ',1,   1,   1,     4.086,     1.158,     0.000,     0.000,     0.000,     0.000,   1,1,0
  1058,'2 ',1,   1,   1,     9.369,     2.655,     0.000,     0.000,     0.000,     0.000,   1,1,0
  1064,'1 ',1,   1,   1,     6.591,     1.867,     0.000,     0.000,     0.000,     0.000,   1,1,0
  1064,'2 ',1,   1,   1,   117.168,    33.198,     0.000,     0.000,     0.000,     0.000,   1,1,0
  1067,'1 ',1,   1,   1,   101.550,    28.773,     0.000,     0.000,     0.000,     0.000,   1,1,0
  1068,'1 ',1,   1,   1,     0.690,     0.195,     0.000,     0.000,     0.000,     0.000,   1,1,0
  1068,'2 ',1,   1,   1,    58.713,    16.635,     0.000,     0.000,     0.000,     0.000,   1,1,0
  1071,'1 ',1,   1,   1,    91.464,    25.915,     0.000,     0.000,     0.000,     0.000,   1,1,0
  1083,'1 ',1,   1,   1,    39.945,    11.318,     0.000,     0.000,     0.000,     0.000,   1,1,0
  1085,'1 ',1,   1,   1,     2.922,     0.828,     0.000,     0.000,     0.000,     0.000,   1,1,0
  1085,'2 ',1,   1,   1,    18.375,     5.206,     0.000,     0.000,     0.000,     0.000,   1,1,0
  1086,'1 ',1,   1,   1,    39.672,    11.240,     0.000,     0.000,     0.000,     0.000,   1,1,0
  1087,'1 ',1,   1,   1,     0.909,     0.258,     0.000,     0.000,     0.000,     0.000,   1,1,0
  1089,'1 ',1,   1,   1,     0.831,     0.235,     0.000,     0.000,     0.000,     0.000,   1,1,0
  1089,'2 ',1,   1,   1,    39.774,    11.269,     0.000,     0.000,     0.000,     0.000,   1,1,0
  1091,'1 ',1,   1,   1,     4.713,     1.335,     0.000,     0.000,     0.000,     0.000,   1,1,0
  1091,'2 ',1,   1,   1,     6.909,     1.958,     0.000,     0.000,     0.000,     0.000,   1,1,0
  2001,'1 ',1,   2,   1,    14.307,     4.054,     0.000,     0.000,     0.000,     0.000,   1,1,0
  2001,'2 ',1,   2,   1,    34.050,     9.647,     0.000,     0.000,     0.000,     0.000,   1,1,0
  2007,'1 ',1,   2,   1,     9.540,     2.703,     0.000,     0.000,     0.000,     0.000,   1,1,0
  2008,'1 ',1,   2,   1,     8.061,     2.284,     0.000,     0.000,     0.000,     0.000,   1,1,0
  2009,'1 ',1,   2,   1,    39.135,    11.088,     0.000,     0.000,     0.000,     0.000,   1,1,0
  2010,'1 ',1,   2,   1,     5.106,     1.447,     0.000,     0.000,     0.000,     0.000,   1,1,0
  2010,'2 ',1,   2,   1,     9.606,     2.722,     0.000,     0.000,     0.000,     0.000,   1,1,0
  2010,'3 ',1,   2,   1,     2.928,     0.830,     0.000,     0.000,     0.000,     0.000,   1,1,0
  2010,'4 ',1,   2,   1,     0.192,     0.054,     0.000,     0.000,     0.000,     0.000,   1,1,0
  2010,'5 ',1,   2,   1,    38.973,    11.042,     0.000,     0.000,     0.000,     0.000,   1,1,0
  2014,'1 ',1,   2,   1,     3.624,     1.027,     0.000,     0.000,     0.000,     0.000,   1,1,0
  2014,'2 ',1,   2,   1,    21.804,     6.178,     0.000,     0.000,     0.000,     0.000,   1,1,0
  2015,'1 ',1,   2,   1,     4.686,     1.328,     0.000,     0.000,     0.000,     0.000,   1,1,0
  2016,'1 ',1,   2,   1,    69.267,    19.626,     0.000,     0.000,     0.000,     0.000,   1,1,0
  2020,'1 ',1,   2,   1,    47.973,    13.592,     0.000,     0.000,     0.000,     0.000,   1,1,0
  2022,'1 ',1,   2,   1,    11.565,     3.277,     0.000,     0.000,     0.000,     0.000,   1,1,0
  2025,'1 ',1,   2,   1,    39.618,    11.225,     0.000,     0.000,     0.000,     0.000,   1,1,0
  2026,'1 ',1,   2,   1,     2.511,     0.711,     0.000,     0.000,     0.000,     0.000,   1,1,0
  2026,'2 ',1,   2,   1,     0.948,     0.269,     0.000,     0.000,     0.000,     0.000,   1,1,0
  2026,'3 ',1,   2,   1,     7.173,     2.032,     0.000,     0.000,     0.000,     0.000,   1,1,0
  2026,'4 ',1,   2,   1,     7.938,     2.249,     0.000,     0.000,     0.000,     0.000,   1,1,0
  2027,'1 ',1,   2,   1,     3.555,     1.007,     0.000,     0.000,     0.000,     0.000,   1,1,0
  2028,'1 ',1,   2,   1,    14.238,     4.034,     0.000,     0.000,     0.000,     0.000,   1,1,0
  2029,'1 ',1,   2,   1,     3.201,     0.907,     0.000,     0.000,     0.000,     0.000,   1,1,0
  2030,'1 ',1,   2,   1,     3.912,     1.108,     0.000,     0.000,     0.000,     0.000,   1,1,0
  2030,'2 ',1,   2,   1,    43.233,    12.249,     0.000,     0.000,     0.000,     0.000,   1,1,0
  2031,'1 ',1,   2,   1,     0.786,     0.223,     0.000,     0.000,     0.000,     0.000,   1,1,0
  2031,'2 ',1,   2,   1,     1.272,     0.360,     0.000,     0.000,     0.000,     0.000,   1,1,0
  2031,'3 ',1,   2,   1,     3.708,     1.051,     0.000,     0.000,     0.000,     0.000,   1,1,0
  2032,'1 ',1,   2,   1,     3.354,     0.950,     0.000,     0.000,     0.000,     0.000,   1,1,0
  2033,'1 ',1,   2,   1,     1.302,     0.369,     0.000,     0.000,     0.000,     0.000,   1,1,0
  2033,'2 ',1,   2,   1,    12.270,     3.477,     0.000,     0.000,     0.000,     0.000,   1,1,0
  2034,'1 ',1,   2,   1,     5.340,     1.513,     0.000,     0.000,     0.000,     0.000,   1,1,0
  2035,'1 ',1,   2,   1,     4.149,     1.176,     0.000,     0.000,     0.000,     0.000,   1,1,0
  2035,'2 ',1,   2,   1,     0.534,     0.151,     0.000,     0.000,     0.000,     0.000,   1,1,0
  2036,'1 ',1,   2,   1,    41.586,    11.783,     0.000,     0.000,     0.000,     0.000,   1,1,0
  2037,'1 ',1,   2,   1,     0.690,     0.195,     0.000,     0.000,     0.000,     0.000,   1,1,0
  2037,'2 ',1,   2,   1,     2.811,     0.796,     0.000,     0.000,     0.000,     0.000,   1,1,0
  2038,'1 ',1,   2,   1,     2.604,     0.738,     0.000,     0.000,     0.000,     0.000,   1,1,0
  2039,'1 ',1,   2,   1,     5.559,     1.575,     0.000,     0.000,     0.000,     0.000,   1,1,0
  2040,'1 ',1,   2,   1,    15.903,     4.506,     0.000,     0.000,     0.000,     0.000,   1,1,0
  2043,'1 ',1,   2,   1,     4.236,     1.200,     0.000,     0.000,     0.000,     0.000,   1,1,0
  2044,'1 ',1,   2,   1,    27.405,     7.765,     0.000,     0.000,     0.000,     0.000,   1,1,0
  2045,'1 ',1,   2,   1,    22.605,     6.405,     0.000,     0.000,     0.000,     0.000,   1,1,0
  2046,'1 ',1,   2,   1,    22.134,     6.271,     0.000,     0.000,     0.000,     0.000,   1,1,0
  2047,'1 ',1,   2,   1,     9.408,     2.666,     0.000,     0.000,     0.000,     0.000,   1,1,0
  2047,'2 ',1,   2,   1,     5.547,     1.572,     0.000,     0.000,     0.000,     0.000,   1,1,0
  2048,'1 ',1,   2,   1,     6.417,     1.818,     0.000,     0.000,     0.000,     0.000,   1,1,0
  2049,'1 ',1,   2,   1,     0.486,     0.138,     0.000,     0.000,     0.000,     0.000,   1,1,0
  2049,'2 ',1,   2,   1,     0.579,     0.164,     0.000,     0.000,     0.000,     0.000,   1,1,0
  2049,'3 ',1,   2,   1,    10.506,     2.977,     0.000,     0.000,     0.000,     0.000,   1,1,0
  2050,'1 ',1,   2,   1,     3.657,     1.036,     0.000,     0.000,     0.000,     0.000,   1,1,0
  2051,'1 ',1,   2,   1,    17.850,     5.057,     0.000,     0.000,     0.000,     0.000,   1,1,0
  2052,'1 ',1,   2,   1,     9.459,     2.680,     0.000,     0.000,     0.000,     0.000,   1,1,0
  2052,'2 ',1,   2,   1,    15.378,     4.357,     0.000,     0.000,     0.000,     0.000,   1,1,0
  2053,'1 ',1,   2,   1,    29.133,     8.254,     0.000,     0.000,     0.000,     0.000,   1,1,0
  2055,'1 ',1,   2,   1,    49.620,    14.059,     0.000,     0.000,     0.000,     0.000,   1,1,0
  2060,'1 ',1,   2,   1,     3.795,     1.075,     0.000,     0.000,     0.000,     0.000,   1,1,0
  2063,'1 ',1,   2,   1,    65.616,    18.591,     0.000,     0.000,     0.000,     0.000,   1,1,0
  2064,'1 ',1,   2,   1,     7.038,     1.994,     0.000,     0.000,     0.000,     0.000,   1,1,0
  2064,'2 ',1,   2,   1,     3.009,     0.853,     0.000,     0.000,     0.000,     0.000,   1,1,0
  2065,'1 ',1,   2,   1,    78.360,    22.202,     0.000,     0.000,     0.000,     0.000,   1,1,0
  2066,'1 ',1,   2,   1,     4.050,     1.147,     0.000,     0.000,     0.000,     0.000,   1,1,0
  2066,'2 ',1,   2,   1,     2.541,     0.720,     0.000,     0.000,     0.000,     0.000,   1,1,0
  2066,'3 ',1,   2,   1,     0.522,     0.148,     0.000,     0.000,     0.000,     0.000,   1,1,0
  2067,'1 ',1,   2,   1,    53.967,    15.291,     0.000,     0.000,     0.000,     0.000,   1,1,0
  2068,'1 ',1,   2,   1,     5.760,     1.632,     0.000,     0.000,     0.000,     0.000,   1,1,0
  2069,'1 ',1,   2,   1,    21.924,     6.212,     0.000,     0.000,     0.000,     0.000,   1,1,0
  2072,'1 ',1,   2,   1,     9.705,     2.750,     0.000,     0.000,     0.000,     0.000,   1,1,0
  2079,'1 ',1,   2,   1,     4.479,     1.269,     0.000,     0.000,     0.000,     0.000,   1,1,0
  2080,'1 ',1,   2,   1,    16.932,     4.797,     0.000,     0.000,     0.000,     0.000,   1,1,0
  2081,'1 ',1,   2,   1,     4.464,     1.265,     0.000,     0.000,     0.000,     0.000,   1,1,0
  2082,'1 ',1,   2,   1,    59.031,    16.725,     0.000,     0.000,     0.000,     0.000,   1,1,0
  2086,'1 ',1,   2,   1,     2.193,     0.621,     0.000,     0.000,     0.000,     0.000,   1,1,0
  2087,'1 ',1,   2,   1,     7.896,     2.237,     0.000,     0.000,     0.000,     0.000,   1,1,0
  2090,'1 ',1,   2,   1,     2.424,     0.687,     0.000,     0.000,     0.000,     0.000,   1,1,0
  2091,'1 ',1,   2,   1,    17.046,     4.830,     0.000,     0.000,     0.000,     0.000,   1,1,0
  2092,'1 ',1,   2,   1,    24.108,     6.831,     0.000,     0.000,     0.000,     0.000,   1,1,0
  2106,'1 ',1,   2,   1,    14.403,     4.081,     0.000,     0.000,     0.000,     0.000,   1,1,0
  2107,'1 ',1,   2,   1,    74.151,    21.009,     0.000,     0.000,     0.000,     0.000,   1,1,0
  2108,'1 ',1,   2,   1,     2.145,     0.608,     0.000,     0.000,     0.000,     0.000,   1,1,0
  2109,'1 ',1,   2,   1,    33.810,     9.579,     0.000,     0.000,     0.000,     0.000,   1,1,0
  2110,'1 ',1,   2,   1,     8.589,     2.434,     0.000,     0.000,     0.000,     0.000,   1,1,0
  2111,'1 ',1,   2,   1,     7.002,     1.984,     0.000,     0.000,     0.000,     0.000,   1,1,0
  2111,'2 ',1,   2,   1,     6.951,     1.969,     0.000,     0.000,     0.000,     0.000,   1,1,0
  2112,'1 ',1,   2,   1,     4.542,     1.287,     0.000,     0.000,     0.000,     0.000,   1,1,0
  2114,'1 ',1,   2,   1,    70.776,    20.053,     0.000,     0.000,     0.000,     0.000,   1,1,0
  2121,'1 ',1,   2,   1,     2.334,     0.661,     0.000,     0.000,     0.000,     0.000,   1,1,0
  2122,'1 ',1,   2,   1,     6.723,     1.905,     0.000,     0.000,     0.000,     0.000,   1,1,0
  2124,'1 ',1,   2,   1,    21.285,     6.031,     0.000,     0.000,     0.000,     0.000,   1,1,0
  2125,'1 ',1,   2,   1,     4.056,     1.149,     0.000,     0.000,     0.000,     0.000,   1,1,0
  2126,'1 ',1,   2,   1,    14.235,     4.033,     0.000,     0.000,     0.000,     0.000,   1,1,0
  2129,'1 ',1,   2,   1,     6.633,     1.879,     0.000,     0.000,     0.000,     0.000,   1,1,0
  2132,'1 ',1,   2,   1,    11.940,     3.383,     0.000,     0.000,     0.000,     0.000,   1,1,0
  2133,'1 ',1,   2,   1,     5.679,     1.609,     0.000,     0.000,     0.000,     0.000,   1,1,0
  3002,'1 ',1,   3,   1,   112.860,    31.977,     0.000,     0.000,     0.000,     0.000,   1,1,0
  3005,'1 ',1,   3,   1,     0.792,     0.224,     0.000,     0.000,     0.000,     0.000,   1,1,0
  3005,'2 ',1,   3,   1,     0.825,     0.234,     0.000,     0.000,     0.000,     0.000,   1,1,0
  3005,'3 ',1,   3,   1,     5.724,     1.622,     0.000,     0.000,     0.000,     0.000,   1,1,0
  3006,'1 ',1,   3,   1,     7.347,     2.082,     0.000,     0.000,     0.000,     0.000,   1,1,0
  3007,'1 ',1,   3,   1,    14.964,     4.240,     0.000,     0.000,     0.000,     0.000,   1,1,0
  3008,'1 ',1,   3,   1,    18.996,     5.382,     0.000,     0.000,     0.000,     0.000,   1,1,0
  3008,'2 ',1,   3,   1,     0.813,     0.230,     0.000,     0.000,     0.000,     0.000,   1,1,0
  3009,'1 ',1,   3,   1,    12.540,     3.553,     0.000,     0.000,     0.000,     0.000,   1,1,0
  3010,'1 ',1,   3,   1,     4.671,     1.323,     0.000,     0.000,     0.000,     0.000,   1,1,0
  3011,'1 ',1,   3,   1,    18.981,     5.378,     0.000,     0.000,     0.000,     0.000,   1,1,0
  3011,'2 ',1,   3,   1,     8.157,     2.311,     0.000,     0.000,     0.000,     0.000,   1,1,0
  3012,'1 ',1,   3,   1,     0.564,     0.160,     0.000,     0.000,     0.000,     0.000,   1,1,0
  3013,'1 ',1,   3,   1,    64.557,    18.291,     0.000,     0.000,     0.000,     0.000,   1,1,0
  3014,'1 ',1,   3,   1,    22.002,     6.234,     0.000,     0.000,     0.000,     0.000,   1,1,0
  3015,'1 ',1,   3,   1,     5.364,     1.520,     0.000,     0.000,     0.000,     0.000,   1,1,0
  3021,'1 ',1,   3,   1,     0.525,     0.149,     0.000,     0.000,     0.000,     0.000,   1,1,0
  3021,'2 ',1,   3,   1,     1.416,     0.401,     0.000,     0.000,     0.000,     0.000,   1,1,0
  3022,'1 ',1,   3,   1,    24.591,     6.967,     0.000,     0.000,     0.000,     0.000,   1,1,0
  3023,'1 ',1,   3,   1,    10.407,     2.949,     0.000,     0.000,     0.000,     0.000,   1,1,0
  3024,'1 ',1,   3,   1,    10.131,     2.870,     0.000,     0.000,     0.000,     0.000,   1,1,0
  3025,'1 ',1,   3,   1,    13.674,     3.874,     0.000,     0.000,     0.000,     0.000,   1,1,0
  3029,'1 ',1,   3,   1,     4.866,     1.379,     0.000,     0.000,     0.000,     0.000,   1,1,0
  3030,'1 ',1,   3,   1,   129.720,    36.754,     0.000,     0.000,     0.000,     0.000,   1,1,0
  3031,'1 ',1,   3,   1,    14.733,     4.174,     0.000,     0.000,     0.000,     0.000,   1,1,0
  3032,'1 ',1,   3,   1,    72.864,    20.645,     0.000,     0.000,     0.000,     0.000,   1,1,0
  3035,'1 ',1,   3,   1,     3.465,     0.982,     0.000,     0.000,     0.000,     0.000,   1,1,0
  3036,'1 ',1,   3,   1,     1.299,     0.368,     0.000,     0.000,     0.000,     0.000,   1,1,0
  3036,'2 ',1,   3,   1,     4.503,     1.276,     0.000,     0.000,     0.000,     0.000,   1,1,0
  3040,'1 ',1,   3,   1,    14.607,     4.139,     0.000,     0.000,     0.000,     0.000,   1,1,0
  3042,'1 ',1,   3,   1,     5.016,     1.421,     0.000,     0.000,     0.000,     0.000,   1,1,0
  3042,'2 ',1,   3,   1,     3.738,     1.059,     0.000,     0.000,     0.000,     0.000,   1,1,0
  3049,'1 ',1,   3,   1,    10.584,     2.999,     0.000,     0.000,     0.000,     0.000,   1,1,0
  3051,'1 ',1,   3,   1,     0.843,     0.239,     0.000,     0.000,     0.000,     0.000,   1,1,0
  3051,'2 ',1,   3,   1,   144.447,    40.927,     0.000,     0.000,     0.000,     0.000,   1,1,0
  3052,'1 ',1,   3,   1,     8.076,     2.288,     0.000,     0.000,     0.000,     0.000,   1,1,0
  3066,'1 ',1,   3,   1,    22.035,     6.243,     0.000,     0.000,     0.000,     0.000,   1,1,0
  3069,'1 ',1,   3,   1,     3.813,     1.080,     0.000,     0.000,     0.000,     0.000,   1,1,0
  3072,'1 ',1,   3,   1,     5.985,     1.696,     0.000,     0.000,     0.000,     0.000,   1,1,0
  3075,'1 ',1,   3,   1,    12.183,     3.452,     0.000,     0.000,     0.000,     0.000,   1,1,0
  3076,'1 ',1,   3,   1,    10.794,     3.058,     0.000,     0.000,     0.000,     0.000,   1,1,0
  3077,'1 ',1,   3,   1,    68.655,    19.452,     0.000,     0.000,     0.000,     0.000,   1,1,0
  3093,'1 ',1,   3,   1,     5.046,     1.430,     0.000,     0.000,     0.000,     0.000,   1,1,0
  3099,'1 ',1,   3,   1,    12.078,     3.422,     0.000,     0.000,     0.000,     0.000,   1,1,0
  3100,'1 ',1,   3,   1,     8.526,     2.416,     0.000,     0.000,     0.000,     0.000,   1,1,0
  3101,'1 ',1,   3,   1,     0.105,     0.030,     0.000,     0.000,     0.000,     0.000,   1,1,0
  3101,'2 ',1,   3,   1,     2.793,     0.791,     0.000,     0.000,     0.000,     0.000,   1,1,0
  3101,'3 ',1,   3,   1,     6.534,     1.851,     0.000,     0.000,     0.000,     0.000,   1,1,0
  3102,'1 ',1,   3,   1,    75.255,    21.322,     0.000,     0.000,     0.000,     0.000,   1,1,0
  3103,'1 ',1,   3,   1,     0.333,     0.094,     0.000,     0.000,     0.000,     0.000,   1,1,0
  3103,'2 ',1,   3,   1,    38.985,    11.046,     0.000,     0.000,     0.000,     0.000,   1,1,0
...
 0 /End of Load data, Begin Fixed shunt data
  2017,'2 ',1,     0.000,  -100.000
  2096,'1 ',0,     0.000,  -200.000
  3051,'2 ',0,     0.000,    80.000
  8005,'2 ',1,     0.000,   170.000
 0 /End of Fixed shunt data, Begin Generator data
1004,'1 ', 158.25000, 7.53700, 44.94000, -30.38000,1.01000,     0, 253.20000, 0.00000E+0, 1.00000E+0, 0.00000E+0, 0.00000E+0,1.00000, 1,  100.0, 211.00000, 63.30000,   1,1.0000,    ,      ,    ,      ,    ,      ,1, 1.0000
1006,'1 ', 25.72500, 2.03400, 7.31000, -4.94000,1.00000,     0, 41.16000, 0.00000E+0, 1.00000E+0, 0.00000E+0, 0.00000E+0,1.00000, 1,  100.0, 34.30000, 10.29000,   1,1.0000,    ,      ,    ,      ,    ,      ,1, 1.0000
1009,'1 ', 61.87500, -11.88000, 17.57000, -11.88000,1.00000,     0, 99.00000, 0.00000E+0, 1.00000E+0, 0.00000E+0, 0.00000E+0,1.00000, 1,  100.0, 82.50000, 24.75000,   1,1.0000,    ,      ,    ,      ,    ,      ,1, 1.0000
1011,'1 ', 7.50000, 0.00000, 0.00000, 0.00000,1.00000,     0, 12.00000, 0.00000E+0, 1.00000E+0, 0.00000E+0, 0.00000E+0,1.00000, 1,  100.0, 10.00000, 3.00000,   1,1.0000
1021,'1 ', 149.62500, -2.27300, 42.49000, -28.73000,1.00000,     0, 239.40000, 0.00000E+0, 1.00000E+0, 0.00000E+0, 0.00000E+0,1.00000, 1,  100.0, 199.50000, 59.85000,   1,1.0000,    ,      ,    ,      ,    ,      ,1, 1.0000
1023,'1 ', 135.00000, 11.76800, 38.34000, -25.92000,1.01000,     0, 216.00000, 0.00000E+0, 1.00000E+0, 0.00000E+0, 0.00000E+0,1.00000, 1,  100.0, 180.00000, 54.00000,   1,1.0000,    ,      ,    ,      ,    ,      ,1, 1.0000
1026,'1 ', 93.15000, 3.56300, 26.45000, -17.88000,1.00000,     0, 149.04000, 0.00000E+0, 1.00000E+0, 0.00000E+0, 0.00000E+0,1.00000, 1,  100.0, 124.20000, 37.26000,   1,1.0000,    ,      ,    ,      ,    ,      ,1, 1.0000
1033,'1 ', 208.50000, -23.88900, 59.21000, -40.03000,1.00000,     0, 333.60000, 0.00000E+0, 1.00000E+0, 0.00000E+0, 0.00000E+0,1.00000, 1,  100.0, 278.00000, 83.40000,   1,1.0000,    ,      ,    ,      ,    ,      ,1, 1.0000
1035,'1 ', 67.50000, -4.13900, 19.17000, -12.96000,1.00000,     0, 108.00000, 0.00000E+0, 1.00000E+0, 0.00000E+0, 0.00000E+0,1.00000, 1,  100.0, 90.00000, 27.00000,   1,1.0000,    ,      ,    ,      ,    ,      ,1, 1.0000
1039,'1 ', 110.62500, -16.72100, 31.42000, -21.24000,1.00000,     0, 177.00000, 0.00000E+0, 1.00000E+0, 0.00000E+0, 0.00000E+0,1.00000, 1,  100.0, 147.50000, 44.25000,   1,1.0000,    ,      ,    ,      ,    ,      ,1, 1.0000
1042,'1 ', 91.42500, -10.54900, 25.96000, -17.55000,1.00000,     0, 146.28000, 0.00000E+0, 1.00000E+0, 0.00000E+0, 0.00000E+0,1.00000, 1,  100.0, 121.90000, 36.57000,   1,1.0000,    ,      ,    ,      ,    ,      ,1, 1.0000
1043,'1 ', 44.10000, 1.18900, 12.52000, -8.47000,1.00000,     0, 70.56000, 0.00000E+0, 1.00000E+0, 0.00000E+0, 0.00000E+0,1.00000, 1,  100.0, 58.80000, 17.64000,   1,1.0000,    ,      ,    ,      ,    ,      ,1, 1.0000
1048,'1 ', 97.56000, 0.00000, 165.53000, -36.10000,1.00000,     0, 390.24000, 0.00000E+0, 1.00000E+0, 0.00000E+0, 0.00000E+0,1.00000, 1,  100.0, 325.20000, 97.56000,   1,1.0000
1049,'1 ', 0.00000, 0.00000, 165.53000, -36.10000,1.00000,     0, 390.24000, 0.00000E+0, 1.00000E+0, 0.00000E+0, 0.00000E+0,1.00000, 1,  100.0, 325.20000, 97.56000,   1,1.0000
1050,'1 ', 89.40000, 0.70700, 45.50000, -9.92000,1.00000,     0, 107.28000, 0.00000E+0, 1.00000E+0, 0.00000E+0, 0.00000E+0,1.00000, 1,  100.0, 89.40000, 26.82000,   1,1.0000
1051,'1 ', 89.40000, 0.88100, 45.50000, -9.92000,1.00000,     0, 107.28000, 0.00000E+0, 1.00000E+0, 0.00000E+0, 0.00000E+0,1.00000, 1,  100.0, 89.40000, 26.82000,   1,1.0000
1052,'1 ', 89.40000, -1.22100, 45.50000, -9.92000,1.00000,     0, 107.28000, 0.00000E+0, 1.00000E+0, 0.00000E+0, 0.00000E+0,1.00000, 1,  100.0, 89.40000, 26.82000,   1,1.0000
1053,'1 ', 157.89700, 0.00000, 91.01000, -19.85000,1.00000,     0, 214.56000, 0.00000E+0, 1.00000E+0, 0.00000E+0, 0.00000E+0,1.00000, 1,  100.0, 178.80000, 53.64000,   1,1.0000
1057,'1 ', 90.00000, -7.65600, 25.56000, -17.28000,1.00000,     0, 144.00000, 0.00000E+0, 1.00000E+0, 0.00000E+0, 0.00000E+0,1.00000, 1,  100.0, 120.00000, 36.00000,   1,1.0000,    ,      ,    ,      ,    ,      ,1, 1.0000
1059,'1 ', 0.00000, 0.00000, 2.85000, -0.62000,1.04000,     0, 6.72000, 0.00000E+0, 1.00000E+0, 0.00000E+0, 0.00000E+0,1.00000, 1,  100.0, 5.60000, 1.68000,   1,1.0000
1060,'1 ', 0.00000, 0.00000, 1.02000, -0.22000,1.04000,     0, 2.40000, 0.00000E+0, 1.00000E+0, 0.00000E+0, 0.00000E+0,1.00000, 1,  100.0, 2.00000, 0.60000,   1,1.0000
1062,'1 ', 1.12500, 0.00000, 0.00000, 0.00000,1.01000,     0, 1.80000, 0.00000E+0, 1.00000E+0, 0.00000E+0, 0.00000E+0,1.00000, 1,  100.0, 1.50000, 0.45000,   1,1.0000
1063,'1 ', 172.50000, 0.00000, 0.00000, 0.00000,1.01000,     0, 276.00000, 0.00000E+0, 1.00000E+0, 0.00000E+0, 0.00000E+0,1.00000, 1,  100.0, 230.00000, 69.00000,   1,1.0000
1066,'1 ', 106.87500, 1.40000, 30.35000, -20.52000,1.00000,     0, 171.00000, 0.00000E+0, 1.00000E+0, 0.00000E+0, 0.00000E+0,1.00000, 1,  100.0, 142.50000, 42.75000,   1,1.0000,    ,      ,    ,      ,    ,      ,1, 1.0000
1070,'1 ', 120.37500, 24.54500, 34.19000, -23.11000,1.04000,     0, 192.60000, 0.00000E+0, 1.00000E+0, 0.00000E+0, 0.00000E+0,1.00000, 1,  100.0, 160.50000, 48.15000,   1,1.0000,    ,      ,    ,      ,    ,      ,1, 1.0000
1072,'1 ', 192.13000, 28.44300, 97.80000, -21.33000,1.01000,     0, 230.56000, 0.00000E+0, 1.00000E+0, 0.00000E+0, 0.00000E+0,1.00000, 1,  100.0, 192.13000, 57.64000,   1,1.0000
1073,'1 ', 192.13000, 34.60600, 97.80000, -21.33000,1.01000,     0, 230.56000, 0.00000E+0, 1.00000E+0, 0.00000E+0, 0.00000E+0,1.00000, 1,  100.0, 192.13000, 57.64000,   1,1.0000
1074,'1 ', 192.13000, 31.09400, 97.80000, -21.33000,1.01000,     0, 230.56000, 0.00000E+0, 1.00000E+0, 0.00000E+0, 0.00000E+0,1.00000, 1,  100.0, 192.13000, 57.64000,   1,1.0000
1075,'1 ', 192.13000, 32.36200, 97.80000, -21.33000,1.01000,     0, 230.56000, 0.00000E+0, 1.00000E+0, 0.00000E+0, 0.00000E+0,1.00000, 1,  100.0, 192.13000, 57.64000,   1,1.0000
1076,'1 ', 57.64000, 0.00000, 97.80000, -21.33000,1.01000,     0, 230.56000, 0.00000E+0, 1.00000E+0, 0.00000E+0, 0.00000E+0,1.00000, 1,  100.0, 192.13000, 57.64000,   1,1.0000
1077,'1 ', 57.64000, 0.00000, 97.80000, -21.33000,1.01000,     0, 230.56000, 0.00000E+0, 1.00000E+0, 0.00000E+0, 0.00000E+0,1.00000, 1,  100.0, 192.13000, 57.64000,   1,1.0000
1078,'1 ', 95.50000, 17.10300, 48.61000, -10.60000,1.01000,     0, 114.60000, 0.00000E+0, 1.00000E+0, 0.00000E+0, 0.00000E+0,1.00000, 1,  100.0, 95.50000, 28.65000,   1,1.0000
1079,'1 ', 95.50000, 23.82100, 48.61000, -10.60000,1.01000,     0, 114.60000, 0.00000E+0, 1.00000E+0, 0.00000E+0, 0.00000E+0,1.00000, 1,  100.0, 95.50000, 28.65000,   1,1.0000
1080,'1 ', 95.50000, 13.90800, 48.61000, -10.60000,1.01000,     0, 114.60000, 0.00000E+0, 1.00000E+0, 0.00000E+0, 0.00000E+0,1.00000, 1,  100.0, 95.50000, 28.65000,   1,1.0000
1081,'1 ', 85.95000, 0.00000, 145.83000, -31.80000,1.01000,     0, 343.80000, 0.00000E+0, 1.00000E+0, 0.00000E+0, 0.00000E+0,1.00000, 1,  100.0, 286.50000, 85.95000,   1,1.0000
1082,'1 ', 112.50000, -21.60000, 31.95000, -21.60000,1.00000,     0, 180.00000, 0.00000E+0, 1.00000E+0, 0.00000E+0, 0.00000E+0,1.00000, 1,  100.0, 150.00000, 45.00000,   1,1.0000,    ,      ,    ,      ,    ,      ,1, 1.0000
1084,'1 ', 86.62500, 24.60000, 24.60000, -16.63000,1.04000,     0, 138.60000, 0.00000E+0, 1.00000E+0, 0.00000E+0, 0.00000E+0,1.00000, 1,  100.0, 115.50000, 34.65000,   1,1.0000,    ,      ,    ,      ,    ,      ,1, 1.0000
1088,'1 ', 56.25000, 2.85200, 15.97000, -10.80000,1.00000,     0, 90.00000, 0.00000E+0, 1.00000E+0, 0.00000E+0, 0.00000E+0,1.00000, 1,  100.0, 75.00000, 22.50000,   1,1.0000,    ,      ,    ,      ,    ,      ,1, 1.0000
1090,'1 ', 141.37500, 40.15000, 40.15000, -27.14000,1.02000,     0, 226.20000, 0.00000E+0, 1.00000E+0, 0.00000E+0, 0.00000E+0,1.00000, 1,  100.0, 188.50000, 56.55000,   1,1.0000,    ,      ,    ,      ,    ,      ,1, 1.0000
2004,'1 ', 0.00000, 0.00000, 199.43000, -43.49000,1.02000,     0, 470.16000, 0.00000E+0, 1.00000E+0, 0.00000E+0, 0.00000E+0,1.00000, 1,  100.0, 391.80000, 117.54000,   1,1.0000
2005,'1 ', 0.00000, 0.00000, 199.43000, -43.49000,1.02000,     0, 470.16000, 0.00000E+0, 1.00000E+0, 0.00000E+0, 0.00000E+0,1.00000, 1,  100.0, 391.80000, 117.54000,   1,1.0000
2006,'1 ', 0.00000, 0.00000, 199.43000, -43.49000,1.02000,     0, 470.16000, 0.00000E+0, 1.00000E+0, 0.00000E+0, 0.00000E+0,1.00000, 1,  100.0, 391.80000, 117.54000,   1,1.0000
2013,'1 ', 150.45000, -28.89000, 42.73000, -28.89000,1.00000,     0, 240.72000, 0.00000E+0, 1.00000E+0, 0.00000E+0, 0.00000E+0,1.00000, 1,  100.0, 200.60000, 60.18000,   1,1.0000,    ,      ,    ,      ,    ,      ,1, 1.0000
2019,'1 ', 163.50000, 46.43000, 46.43000, -31.39000,1.04000,     0, 261.60000, 0.00000E+0, 1.00000E+0, 0.00000E+0, 0.00000E+0,1.00000, 1,  100.0, 218.00000, 65.40000,   1,1.0000,    ,      ,    ,      ,    ,      ,1, 1.0000
2023,'1 ', 83.33000, 14.80500, 42.42000, -9.25000,1.02000,     0, 100.00000, 0.00000E+0, 1.00000E+0, 0.00000E+0, 0.00000E+0,1.00000, 1,  100.0, 83.33000, 25.00000,   1,1.0000
2024,'1 ', 166.67000, 21.80500, 84.83000, -18.50000,1.02000,     0, 200.00000, 0.00000E+0, 1.00000E+0, 0.00000E+0, 0.00000E+0,1.00000, 1,  100.0, 166.67000, 50.00000,   1,1.0000
2042,'1 ', 59.70000, -11.46000, 16.95000, -11.46000,1.01000,     0, 95.52000, 0.00000E+0, 1.00000E+0, 0.00000E+0, 0.00000E+0,1.00000, 1,  100.0, 79.60000, 23.88000,   1,1.0000,    ,      ,    ,      ,    ,      ,1, 1.0000
2056,'1 ', 0.00000, 0.00000, 2.80000, -0.73000,0.99000,     0, 7.20000, 0.00000E+0, 1.00000E+0, 0.00000E+0, 0.00000E+0,1.00000, 1,  100.0, 6.00000, 1.80000,   1,1.0000
2057,'1 ', 518.40000, -5.77800, 335.52000, -87.84000,0.99000,     0, 864.00000, 0.00000E+0, 1.00000E+0, 0.00000E+0, 0.00000E+0,1.00000, 1,  100.0, 720.00000, 216.00000,   1,1.0000
2059,'1 ', 60.00000, -11.52000, 17.04000, -11.52000,1.00000,     0, 96.00000, 0.00000E+0, 1.00000E+0, 0.00000E+0, 0.00000E+0,1.00000, 1,  100.0, 80.00000, 24.00000,   1,1.0000,    ,      ,    ,      ,    ,      ,1, 1.0000
2062,'1 ', 101.55000, 7.06400, 28.84000, -19.50000,1.02000,     0, 162.48000, 0.00000E+0, 1.00000E+0, 0.00000E+0, 0.00000E+0,1.00000, 1,  100.0, 135.40000, 40.62000,   1,1.0000,    ,      ,    ,      ,    ,      ,1, 1.0000
2071,'1 ', 112.50000, 6.93500, 31.95000, -21.60000,1.00000,     0, 180.00000, 0.00000E+0, 1.00000E+0, 0.00000E+0, 0.00000E+0,1.00000, 1,  100.0, 150.00000, 45.00000,   1,1.0000,    ,      ,    ,      ,    ,      ,1, 1.0000
2076,'1 ', 22.50000, 6.39000, 6.39000, -4.32000,1.04000,     0, 36.00000, 0.00000E+0, 1.00000E+0, 0.00000E+0, 0.00000E+0,1.00000, 1,  100.0, 30.00000, 9.00000,   1,1.0000,    ,      ,    ,      ,    ,      ,1, 1.0000
2078,'1 ', 84.37500, 10.27500, 23.96000, -16.20000,1.02000,     0, 135.00000, 0.00000E+0, 1.00000E+0, 0.00000E+0, 0.00000E+0,1.00000, 1,  100.0, 112.50000, 33.75000,   1,1.0000,    ,      ,    ,      ,    ,      ,1, 1.0000
2083,'1 ', 20.00000, 10.18000, 10.18000, -2.22000,1.02000,     0, 24.00000, 0.00000E+0, 1.00000E+0, 0.00000E+0, 0.00000E+0,1.00000, 1,  100.0, 20.00000, 6.00000,   1,1.0000
2084,'1 ', 0.00000, 0.00000, 10.18000, -2.22000,1.02000,     0, 24.00000, 0.00000E+0, 1.00000E+0, 0.00000E+0, 0.00000E+0,1.00000, 1,  100.0, 20.00000, 6.00000,   1,1.0000
2085,'1 ', 0.00000, 0.00000, 20.36000, -4.44000,1.02000,     0, 48.00000, 0.00000E+0, 1.00000E+0, 0.00000E+0, 0.00000E+0,1.00000, 1,  100.0, 40.00000, 12.00000,   1,1.0000
2089,'1 ', 50.70000, 3.95500, 14.40000, -9.73000,1.00000,     0, 81.12000, 0.00000E+0, 1.00000E+0, 0.00000E+0, 0.00000E+0,1.00000, 1,  100.0, 67.60000, 20.28000,   1,1.0000,    ,      ,    ,      ,    ,      ,1, 1.0000
2094,'1 ', 0.00000, 0.00000, 2.13000, -1.44000,1.00000,     0, 12.00000, 0.00000E+0, 1.00000E+0, 0.00000E+0, 0.00000E+0,1.00000, 1,  100.0, 10.00000, 3.00000,   1,1.0000,    ,      ,    ,      ,    ,      ,1, 1.0000
2095,'1 ', 0.00000, 0.00000, 16.93000, -11.45000,1.00000,     0, 95.40000, 0.00000E+0, 1.00000E+0, 0.00000E+0, 0.00000E+0,1.00000, 1,  100.0, 79.50000, 23.85000,   1,1.0000,    ,      ,    ,      ,    ,      ,1, 1.0000
2099,'1 ', 7.50000, -1.44000, 2.13000, -1.44000,1.02000,     0, 12.00000, 0.00000E+0, 1.00000E+0, 0.00000E+0, 0.00000E+0,1.00000, 1,  100.0, 10.00000, 3.00000,   1,1.0000,    ,      ,    ,      ,    ,      ,1, 1.0000
2100,'1 ', 112.50000, -21.60000, 31.95000, -21.60000,1.02000,     0, 180.00000, 0.00000E+0, 1.00000E+0, 0.00000E+0, 0.00000E+0,1.00000, 1,  100.0, 150.00000, 45.00000,   1,1.0000,    ,      ,    ,      ,    ,      ,1, 1.0000
2103,'1 ', 0.00000, 0.00000, 136.28000, -29.72000,1.00000,     0, 321.28000, 0.00000E+0, 1.00000E+0, 0.00000E+0, 0.00000E+0,1.00000, 1,  100.0, 267.73000, 80.32000,   1,1.0000
2104,'1 ', 0.00000, 0.00000, 136.28000, -29.72000,1.00000,     0, 321.28000, 0.00000E+0, 1.00000E+0, 0.00000E+0, 0.00000E+0,1.00000, 1,  100.0, 267.73000, 80.32000,   1,1.0000
2105,'1 ', 0.00000, 0.00000, 136.28000, -29.72000,1.00000,     0, 321.28000, 0.00000E+0, 1.00000E+0, 0.00000E+0, 0.00000E+0,1.00000, 1,  100.0, 267.73000, 80.32000,   1,1.0000
2115,'1 ', 184.72000, -20.50000, 94.02000, -20.50000,1.00000,     0, 221.66000, 0.00000E+0, 1.00000E+0, 0.00000E+0, 0.00000E+0,1.00000, 1,  100.0, 184.72000, 55.41000,   1,1.0000
2116,'1 ', 184.72000, -20.50000, 94.02000, -20.50000,1.00000,     0, 221.66000, 0.00000E+0, 1.00000E+0, 0.00000E+0, 0.00000E+0,1.00000, 1,  100.0, 184.72000, 55.41000,   1,1.0000
2117,'1 ', 184.72000, -20.50000, 94.02000, -20.50000,1.00000,     0, 221.66000, 0.00000E+0, 1.00000E+0, 0.00000E+0, 0.00000E+0,1.00000, 1,  100.0, 184.72000, 55.41000,   1,1.0000
2118,'1 ', 184.72000, -20.50000, 94.02000, -20.50000,1.00000,     0, 221.66000, 0.00000E+0, 1.00000E+0, 0.00000E+0, 0.00000E+0,1.00000, 1,  100.0, 184.72000, 55.41000,   1,1.0000
2119,'1 ', 184.72000, -20.50000, 94.02000, -20.50000,1.00000,     0, 221.66000, 0.00000E+0, 1.00000E+0, 0.00000E+0, 0.00000E+0,1.00000, 1,  100.0, 184.72000, 55.41000,   1,1.0000
2120,'1 ', 184.72000, -5.38000, 94.02000, -20.50000,1.01000,     0, 221.66000, 0.00000E+0, 1.00000E+0, 0.00000E+0, 0.00000E+0,1.00000, 1,  100.0, 184.72000, 55.41000,   1,1.0000
2123,'1 ', 136.27500, -26.16000, 38.70000, -26.16000,1.00000,     0, 218.04000, 0.00000E+0, 1.00000E+0, 0.00000E+0, 0.00000E+0,1.00000, 1,  100.0, 181.70000, 54.51000,   1,1.0000,    ,      ,    ,      ,    ,      ,1, 1.0000
2127,'1 ', 216.45000, -41.56000, 61.47000, -41.56000,1.04000,     0, 346.32000, 0.00000E+0, 1.00000E+0, 0.00000E+0, 0.00000E+0,1.00000, 1,  100.0, 288.60000, 86.58000,   1,1.0000,    ,      ,    ,      ,    ,      ,1, 1.0000
3004,'1 ', 28.12500, -5.40000, 7.99000, -5.40000,1.00000,     0, 45.00000, 0.00000E+0, 1.00000E+0, 0.00000E+0, 0.00000E+0,1.00000, 1,  100.0, 37.50000, 11.25000,   1,1.0000,    ,      ,    ,      ,    ,      ,1, 1.0000
3017,'1 ', 127.12500, 16.28100, 36.10000, -24.41000,1.01000,     0, 203.40000, 0.00000E+0, 1.00000E+0, 0.00000E+0, 0.00000E+0,1.00000, 1,  100.0, 169.50000, 50.85000,   1,1.0000,    ,      ,    ,      ,    ,      ,1, 1.0000
3020,'1 ', 112.50000, 31.95000, 31.95000, -21.60000,1.03000,     0, 180.00000, 0.00000E+0, 1.00000E+0, 0.00000E+0, 0.00000E+0,1.00000, 1,  100.0, 150.00000, 45.00000,   1,1.0000,    ,      ,    ,      ,    ,      ,1, 1.0000
3028,'1 ', 150.00000, 42.60000, 42.60000, -28.80000,1.04000,     0, 240.00000, 0.00000E+0, 1.00000E+0, 0.00000E+0, 0.00000E+0,1.00000, 1,  100.0, 200.00000, 60.00000,   1,1.0000,    ,      ,    ,      ,    ,      ,1, 1.0000
3034,'1 ', 97.87500, 21.73400, 27.80000, -18.79000,1.03000,     0, 156.60000, 0.00000E+0, 1.00000E+0, 0.00000E+0, 0.00000E+0,1.00000, 1,  100.0, 130.50000, 39.15000,   1,1.0000,    ,      ,    ,      ,    ,      ,1, 1.0000
3039,'1 ', 156.75000, 44.52000, 44.52000, -30.10000,1.04000,     0, 250.80000, 0.00000E+0, 1.00000E+0, 0.00000E+0, 0.00000E+0,1.00000, 1,  100.0, 209.00000, 62.70000,   1,1.0000,    ,      ,    ,      ,    ,      ,1, 1.0000
3043,'1 ', 0.00000, 0.00000, 0.66000, -0.14000,1.04000,     0, 1.56000, 0.00000E+0, 1.00000E+0, 0.00000E+0, 0.00000E+0,1.00000, 1,  100.0, 1.30000, 0.39000,   1,1.0000
3044,'1 ', 0.00000, 0.00000, 45.50000, -9.92000,1.04000,     0, 107.28000, 0.00000E+0, 1.00000E+0, 0.00000E+0, 0.00000E+0,1.00000, 1,  100.0, 89.40000, 26.82000,   1,1.0000
3045,'1 ', 0.00000, 0.00000, 227.52000, -49.62000,1.04000,     0, 536.40000, 0.00000E+0, 1.00000E+0, 0.00000E+0, 0.00000E+0,1.00000, 1,  100.0, 447.00000, 134.10000,   1,1.0000
3048,'1 ', 180.75000, 51.33000, 51.33000, -34.70000,1.04000,     0, 289.20000, 0.00000E+0, 1.00000E+0, 0.00000E+0, 0.00000E+0,1.00000, 1,  100.0, 241.00000, 72.30000,   1,1.0000,    ,      ,    ,      ,    ,      ,1, 1.0000
3055,'1 ', 183.87800, 52.22000, 52.22000, -35.30000,1.04000,     0, 294.20000, 0.00000E+0, 1.00000E+0, 0.00000E+0, 0.00000E+0,1.00000, 1,  100.0, 245.17000, 73.55000,   1,1.0000,    ,      ,    ,      ,    ,      ,1, 1.0000
3056,'1 ', 183.87800, 52.22000, 52.22000, -35.30000,1.04000,     0, 294.20000, 0.00000E+0, 1.00000E+0, 0.00000E+0, 0.00000E+0,1.00000, 1,  100.0, 245.17000, 73.55000,   1,1.0000,    ,      ,    ,      ,    ,      ,1, 1.0000
3057,'1 ', 183.87800, 52.22000, 52.22000, -35.30000,1.04000,     0, 294.20000, 0.00000E+0, 1.00000E+0, 0.00000E+0, 0.00000E+0,1.00000, 1,  100.0, 245.17000, 73.55000,   1,1.0000,    ,      ,    ,      ,    ,      ,1, 1.0000
3060,'1 ', 124.22300, 35.28000, 35.28000, -23.85000,1.04000,     0, 198.75000, 0.00000E+0, 1.00000E+0, 0.00000E+0, 0.00000E+0,1.00000, 1,  100.0, 165.63000, 49.69000,   1,1.0000,    ,      ,    ,      ,    ,      ,1, 1.0000
3061,'1 ', 124.22300, 35.28000, 35.28000, -23.85000,1.04000,     0, 198.75000, 0.00000E+0, 1.00000E+0, 0.00000E+0, 0.00000E+0,1.00000, 1,  100.0, 165.63000, 49.69000,   1,1.0000,    ,      ,    ,      ,    ,      ,1, 1.0000
3062,'1 ', 124.22300, 35.28000, 35.28000, -23.85000,1.04000,     0, 198.75000, 0.00000E+0, 1.00000E+0, 0.00000E+0, 0.00000E+0,1.00000, 1,  100.0, 165.63000, 49.69000,   1,1.0000,    ,      ,    ,      ,    ,      ,1, 1.0000
3063,'1 ', 124.22300, 35.28000, 35.28000, -23.85000,1.04000,     0, 198.75000, 0.00000E+0, 1.00000E+0, 0.00000E+0, 0.00000E+0,1.00000, 1,  100.0, 165.63000, 49.69000,   1,1.0000,    ,      ,    ,      ,    ,      ,1, 1.0000
3065,'1 ', 60.37500, -4.53300, 17.15000, -11.59000,1.00000,     0, 96.60000, 0.00000E+0, 1.00000E+0, 0.00000E+0, 0.00000E+0,1.00000, 1,  100.0, 80.50000, 24.15000,   1,1.0000,    ,      ,    ,      ,    ,      ,1, 1.0000
3068,'1 ', 112.50000, 31.95000, 31.95000, -21.60000,1.04000,     0, 180.00000, 0.00000E+0, 1.00000E+0, 0.00000E+0, 0.00000E+0,1.00000, 1,  100.0, 150.00000, 45.00000,   1,1.0000,    ,      ,    ,      ,    ,      ,1, 1.0000
3071,'1 ', 127.65000, -15.87800, 36.25000, -24.51000,1.00000,     0, 204.24000, 0.00000E+0, 1.00000E+0, 0.00000E+0, 0.00000E+0,1.00000, 1,  100.0, 170.20000, 51.06000,   1,1.0000,    ,      ,    ,      ,    ,      ,1, 1.0000
3074,'1 ', 74.85000, -9.10500, 21.26000, -14.37000,1.00000,     0, 119.76000, 0.00000E+0, 1.00000E+0, 0.00000E+0, 0.00000E+0,1.00000, 1,  100.0, 99.80000, 29.94000,   1,1.0000,    ,      ,    ,      ,    ,      ,1, 1.0000
3081,'1 ', 186.75000, 53.04000, 53.04000, -35.86000,1.04000,     0, 298.80000, 0.00000E+0, 1.00000E+0, 0.00000E+0, 0.00000E+0,1.00000, 1,  100.0, 249.00000, 74.70000,   1,1.0000,    ,      ,    ,      ,    ,      ,1, 1.0000
3084,'1 ', 174.37500, 28.96000, 49.52000, -33.48000,1.00000,     0, 279.00000, 0.00000E+0, 1.00000E+0, 0.00000E+0, 0.00000E+0,1.00000, 1,  100.0, 232.50000, 69.75000,   1,1.0000,    ,      ,    ,      ,    ,      ,1, 1.0000
3086,'1 ', 56.25000, 5.08600, 15.97000, -10.80000,1.00000,     0, 90.00000, 0.00000E+0, 1.00000E+0, 0.00000E+0, 0.00000E+0,1.00000, 1,  100.0, 75.00000, 22.50000,   1,1.0000,    ,      ,    ,      ,    ,      ,1, 1.0000
3087,'1 ', 56.25000, 0.00000, 15.97000, -10.80000,1.00000,     0, 90.00000, 0.00000E+0, 1.00000E+0, 0.00000E+0, 0.00000E+0,1.00000, 1,  100.0, 75.00000, 22.50000,   1,1.0000,    ,      ,    ,      ,    ,      ,1, 1.0000
...